Version 4
SHEET 1 6756 2548
WIRE 304 656 -16 656
WIRE 352 656 304 656
WIRE 480 656 432 656
WIRE 544 656 480 656
WIRE 656 656 624 656
WIRE 992 656 656 656
WIRE 992 672 992 656
WIRE -16 704 -16 656
WIRE 304 704 304 656
WIRE 480 704 480 656
WIRE 656 704 656 656
WIRE 304 1072 -16 1072
WIRE 352 1072 304 1072
WIRE 480 1072 432 1072
WIRE 992 1072 480 1072
WIRE 992 1088 992 1072
WIRE -16 1120 -16 1072
WIRE 304 1120 304 1072
WIRE 480 1120 480 1072
WIRE 1792 1200 1328 1200
WIRE 1840 1200 1792 1200
WIRE 1968 1200 1920 1200
WIRE 2128 1200 1968 1200
WIRE 2288 1200 2192 1200
WIRE 2464 1200 2352 1200
WIRE 2512 1200 2464 1200
WIRE 2640 1200 2592 1200
WIRE 2896 1200 2640 1200
WIRE 2912 1200 2896 1200
WIRE 3040 1200 2960 1200
WIRE 3264 1200 3040 1200
WIRE 3376 1200 3264 1200
WIRE 3040 1216 3040 1200
WIRE 3264 1216 3264 1200
WIRE 3376 1232 3376 1200
WIRE 1328 1248 1328 1200
WIRE 1792 1248 1792 1200
WIRE 1968 1248 1968 1200
WIRE 2464 1248 2464 1200
WIRE 2640 1248 2640 1200
WIRE 2896 1312 2896 1200
WIRE 3040 1312 3040 1296
WIRE 3040 1312 2976 1312
WIRE 3264 1312 3264 1296
WIRE 3264 1312 3040 1312
WIRE 3376 1312 3376 1296
WIRE 3376 1312 3264 1312
WIRE 6352 1328 6208 1328
WIRE 6416 1328 6352 1328
WIRE 6576 1328 6496 1328
WIRE 6208 1344 6208 1328
WIRE 3040 1360 3040 1312
WIRE 6352 1360 6352 1328
WIRE 6576 1360 6576 1328
WIRE 1776 1648 1472 1648
WIRE 1824 1648 1776 1648
WIRE 1952 1648 1904 1648
WIRE 2128 1648 1952 1648
WIRE 2224 1648 2192 1648
WIRE 2432 1648 2288 1648
WIRE 2480 1648 2432 1648
WIRE 2608 1648 2560 1648
WIRE 3088 1648 2608 1648
WIRE 3120 1648 3088 1648
WIRE 3392 1648 3200 1648
WIRE 3760 1648 3552 1648
WIRE 3856 1648 3824 1648
WIRE 4128 1648 3856 1648
WIRE 4176 1648 4128 1648
WIRE 4304 1648 4256 1648
WIRE 4576 1648 4304 1648
WIRE 4640 1648 4576 1648
WIRE 4848 1648 4704 1648
WIRE 3552 1664 3552 1648
WIRE 1472 1680 1472 1648
WIRE 3856 1680 3856 1648
WIRE 4576 1680 4576 1648
WIRE 4848 1680 4848 1648
WIRE 1776 1696 1776 1648
WIRE 1952 1696 1952 1648
WIRE 2432 1696 2432 1648
WIRE 2608 1696 2608 1648
WIRE 3088 1696 3088 1648
WIRE 4128 1696 4128 1648
WIRE 4304 1696 4304 1648
WIRE 3392 1712 3392 1648
WIRE 5856 1744 5776 1744
WIRE 5968 1744 5936 1744
WIRE 5984 1744 5968 1744
WIRE 6112 1744 6064 1744
WIRE 6128 1744 6112 1744
WIRE 6352 1744 6208 1744
WIRE 6416 1744 6352 1744
WIRE 6576 1744 6496 1744
WIRE 5776 1776 5776 1744
WIRE 6352 1776 6352 1744
WIRE 6576 1776 6576 1744
WIRE 3856 1792 3856 1760
WIRE 5968 1792 5968 1744
WIRE 6112 1792 6112 1744
WIRE 3392 1824 3392 1792
WIRE 3392 1904 3392 1872
WIRE 3392 1936 3392 1904
FLAG 992 752 0
FLAG -16 784 0
FLAG 304 768 0
FLAG 656 768 0
FLAG 480 768 0
FLAG 992 1168 0
FLAG -16 1200 0
FLAG 304 1184 0
FLAG 480 1184 0
FLAG 1328 1328 0
FLAG 3040 1424 0
FLAG 3392 1936 0
FLAG 3088 1760 0
FLAG 1472 1760 0
FLAG 4576 1760 0
FLAG 3552 1824 0
FLAG 4848 1840 0
FLAG 3856 1792 0
FLAG 1776 1760 0
FLAG 1952 1760 0
FLAG 2432 1760 0
FLAG 2608 1760 0
FLAG 4128 1760 0
FLAG 4304 1760 0
FLAG 2464 1312 0
FLAG 2640 1312 0
FLAG 1792 1312 0
FLAG 1968 1312 0
FLAG 6576 1520 0
FLAG 6352 1424 0
FLAG 6208 1424 0
FLAG 6576 1936 0
FLAG 6352 1840 0
FLAG 5776 1856 0
FLAG 6112 1856 0
FLAG 5968 1856 0
SYMBOL voltage -16 688 R0
WINDOW 123 24 124 Left 2
WINDOW 39 24 152 Left 2
SYMATTR Value2 AC 1
SYMATTR SpiceLine Rser=50
SYMATTR InstName V2
SYMATTR Value ""
SYMBOL cap 288 704 R0
SYMATTR InstName C5
SYMATTR Value 18p
SYMBOL res 976 656 R0
SYMATTR InstName R2
SYMATTR Value 50
SYMBOL cap 464 704 R0
SYMATTR InstName C6
SYMATTR Value 22p
SYMBOL cap 640 704 R0
SYMATTR InstName C7
SYMATTR Value 18p
SYMBOL ind 640 640 R90
WINDOW 0 5 56 VBottom 2
WINDOW 3 32 56 VTop 2
SYMATTR InstName L4
SYMATTR Value 18n
SYMBOL ind 448 640 R90
WINDOW 0 5 56 VBottom 2
WINDOW 3 32 56 VTop 2
SYMATTR InstName L5
SYMATTR Value 18n
SYMBOL voltage -16 1104 R0
WINDOW 123 24 124 Left 2
WINDOW 39 24 152 Left 2
SYMATTR Value2 AC 1
SYMATTR SpiceLine Rser=50
SYMATTR InstName V3
SYMATTR Value ""
SYMBOL cap 288 1120 R0
SYMATTR InstName C4
SYMATTR Value 22p
SYMBOL res 976 1072 R0
SYMATTR InstName R3
SYMATTR Value 50
SYMBOL cap 464 1120 R0
SYMATTR InstName C8
SYMATTR Value 22p
SYMBOL ind 448 1056 R90
WINDOW 0 5 56 VBottom 2
WINDOW 3 32 56 VTop 2
SYMATTR InstName L6
SYMATTR Value 11n
SYMBOL voltage 1328 1232 R0
WINDOW 123 24 124 Left 2
WINDOW 39 24 152 Left 2
SYMATTR Value2 AC 1
SYMATTR SpiceLine Rser=50
SYMATTR InstName V5
SYMATTR Value ""
SYMBOL cap 2352 1184 R90
WINDOW 0 0 32 VBottom 2
WINDOW 3 32 32 VTop 2
SYMATTR InstName C17
SYMATTR Value 1µ
SYMBOL cap 2192 1184 R90
WINDOW 0 0 32 VBottom 2
WINDOW 3 32 32 VTop 2
SYMATTR InstName C18
SYMATTR Value 1µ
SYMBOL cap 2960 1184 R90
WINDOW 0 0 32 VBottom 2
WINDOW 3 32 32 VTop 2
SYMATTR InstName C22
SYMATTR Value 2.2p
SYMBOL ind 2992 1296 R90
WINDOW 0 5 56 VBottom 2
WINDOW 3 32 56 VTop 2
SYMATTR InstName L14
SYMATTR Value 56n
SYMBOL ind 3024 1200 R0
SYMATTR InstName L15
SYMATTR Value 62n
SYMBOL cap 3024 1360 R0
SYMATTR InstName C23
SYMATTR Value 4.7p
SYMBOL res 3248 1200 R0
SYMATTR InstName R6
SYMATTR Value 480
SYMBOL cap 3360 1232 R0
SYMATTR InstName C24
SYMATTR Value 0.97p
SYMBOL cap 2288 1632 R90
WINDOW 0 0 32 VBottom 2
WINDOW 3 32 32 VTop 2
SYMATTR InstName C28
SYMATTR Value 1µ
SYMBOL cap 3104 1760 R180
WINDOW 0 24 56 Left 2
WINDOW 3 24 8 Left 2
SYMATTR InstName C33
SYMATTR Value 39p
SYMBOL ind 3104 1664 R270
WINDOW 0 32 56 VTop 2
WINDOW 3 5 56 VBottom 2
SYMATTR InstName L20
SYMATTR Value 3.0n
SYMBOL voltage 3392 1808 R0
WINDOW 123 24 124 Left 2
WINDOW 39 24 152 Left 2
SYMATTR Value2 AC 1
SYMATTR SpiceLine Rser=1.284
SYMATTR InstName V8
SYMATTR Value ""
SYMBOL ind 3376 1696 R0
SYMATTR InstName L23
SYMATTR Value 392p
SYMBOL cap 2192 1632 R90
WINDOW 0 0 32 VBottom 2
WINDOW 3 32 32 VTop 2
SYMATTR InstName C32
SYMATTR Value 1µ
SYMBOL res 1456 1664 R0
SYMATTR InstName R7
SYMATTR Value 50
SYMBOL ind 4560 1664 R0
SYMATTR InstName L36
SYMATTR Value 18n
SYMBOL cap 4704 1632 R90
WINDOW 0 0 32 VBottom 2
WINDOW 3 32 32 VTop 2
SYMATTR InstName C45
SYMATTR Value 6.2p
SYMBOL res 3536 1648 R0
SYMATTR InstName R12
SYMATTR Value 1.55
SYMBOL ind 3536 1728 R0
SYMATTR InstName L39
SYMATTR Value 470.9p
SYMBOL voltage 4848 1744 R0
WINDOW 123 24 124 Left 2
WINDOW 39 24 152 Left 2
SYMATTR Value2 AC 1
SYMATTR SpiceLine Rser=27.062
SYMATTR InstName V13
SYMATTR Value ""
SYMBOL ind 4832 1664 R0
SYMATTR InstName L40
SYMATTR Value 11.437n
SYMBOL ind 3840 1664 R0
SYMATTR InstName L41
SYMATTR Value 3.3n
SYMBOL cap 3760 1664 R270
WINDOW 0 32 32 VTop 2
WINDOW 3 0 32 VBottom 2
SYMATTR InstName C31
SYMATTR Value 36p
SYMBOL cap 1760 1696 R0
SYMATTR InstName C25
SYMATTR Value 22p
SYMBOL cap 1936 1696 R0
SYMATTR InstName C26
SYMATTR Value 22p
SYMBOL ind 1920 1632 R90
WINDOW 0 5 56 VBottom 2
WINDOW 3 32 56 VTop 2
SYMATTR InstName L16
SYMATTR Value 11n
SYMBOL cap 2416 1696 R0
SYMATTR InstName C27
SYMATTR Value 22p
SYMBOL cap 2592 1696 R0
SYMATTR InstName C34
SYMATTR Value 22p
SYMBOL ind 2576 1632 R90
WINDOW 0 5 56 VBottom 2
WINDOW 3 32 56 VTop 2
SYMATTR InstName L17
SYMATTR Value 11n
SYMBOL cap 4112 1696 R0
SYMATTR InstName C30
SYMATTR Value 22p
SYMBOL cap 4288 1696 R0
SYMATTR InstName C38
SYMATTR Value 22p
SYMBOL ind 4272 1632 R90
WINDOW 0 5 56 VBottom 2
WINDOW 3 32 56 VTop 2
SYMATTR InstName L7
SYMATTR Value 11n
SYMBOL cap 2448 1248 R0
SYMATTR InstName C10
SYMATTR Value 22p
SYMBOL cap 2624 1248 R0
SYMATTR InstName C11
SYMATTR Value 22p
SYMBOL ind 2608 1184 R90
WINDOW 0 5 56 VBottom 2
WINDOW 3 32 56 VTop 2
SYMATTR InstName L8
SYMATTR Value 11n
SYMBOL cap 1776 1248 R0
SYMATTR InstName C12
SYMATTR Value 22p
SYMBOL cap 1952 1248 R0
SYMATTR InstName C13
SYMATTR Value 22p
SYMBOL ind 1936 1184 R90
WINDOW 0 5 56 VBottom 2
WINDOW 3 32 56 VTop 2
SYMATTR InstName L9
SYMATTR Value 11n
SYMBOL voltage 6576 1424 R0
WINDOW 123 24 124 Left 2
WINDOW 39 24 152 Left 2
SYMATTR Value2 AC 1
SYMATTR SpiceLine Rser=27.062
SYMATTR InstName V1
SYMATTR Value ""
SYMBOL ind 6560 1344 R0
SYMATTR InstName L1
SYMATTR Value 11.437n
SYMBOL ind 6512 1312 R90
WINDOW 0 5 56 VBottom 2
WINDOW 3 32 56 VTop 2
SYMATTR InstName L2
SYMATTR Value 18n
SYMBOL cap 6336 1360 R0
SYMATTR InstName C1
SYMATTR Value 15p
SYMBOL res 6192 1328 R0
SYMATTR InstName R1
SYMATTR Value 50
SYMBOL voltage 6576 1840 R0
WINDOW 123 24 124 Left 2
WINDOW 39 24 152 Left 2
SYMATTR Value2 AC 1
SYMATTR SpiceLine Rser=27.062
SYMATTR InstName V4
SYMATTR Value ""
SYMBOL ind 6560 1760 R0
SYMATTR InstName L3
SYMATTR Value 11.437n
SYMBOL ind 6512 1728 R90
WINDOW 0 5 56 VBottom 2
WINDOW 3 32 56 VTop 2
SYMATTR InstName L10
SYMATTR Value 18n
SYMBOL cap 6336 1776 R0
SYMATTR InstName C2
SYMATTR Value 15p
SYMBOL res 5760 1760 R0
SYMATTR InstName R4
SYMATTR Value 50
SYMBOL ind 6080 1728 R90
WINDOW 0 5 56 VBottom 2
WINDOW 3 32 56 VTop 2
SYMATTR InstName L12
SYMATTR Value 46n
SYMBOL ind 5952 1728 R90
WINDOW 0 5 56 VBottom 2
WINDOW 3 32 56 VTop 2
SYMATTR InstName L13
SYMATTR Value 22n
SYMBOL cap 5952 1792 R0
SYMATTR InstName C3
SYMATTR Value 10p
SYMBOL cap 6096 1792 R0
SYMATTR InstName C9
SYMATTR Value 12p
SYMBOL ind 6224 1728 R90
WINDOW 0 5 56 VBottom 2
WINDOW 3 32 56 VTop 2
SYMATTR InstName L11
SYMATTR Value 30n
TEXT 160 576 Left 2 ;Low pass filter
TEXT 256 856 Left 2 !.net I(R2) V2
TEXT -392 736 Left 2 !.ac lin 1e9 300e6 600e6
TEXT 256 1272 Left 2 !.net I(R3) V3
TEXT 2504 1104 Left 2 ;RX path
TEXT 2320 1400 Left 2 !.net I(R6) V5
TEXT 2304 1848 Left 2 !.net I(R7) V8
TEXT 4560 1824 Left 2 !.net I(R12) V13
TEXT 2512 1552 Left 2 ;TX path
TEXT 3448 1592 Left 2 ;"PA"
TEXT 680 840 Left 2 ;Better
TEXT 672 1256 Left 2 ;Less components
TEXT 6304 1504 Left 2 !.net I(R1) V1
TEXT 6176 1264 Left 2 ;This is why the LP module doesn't work
TEXT 6304 1920 Left 2 !.net I(R4) V4
